Version 4
SHEET 1 880 680
WIRE 224 80 64 80
WIRE 480 80 304 80
WIRE 656 80 480 80
WIRE 64 176 64 80
WIRE 480 176 480 80
WIRE 656 176 656 80
WIRE 64 304 64 256
WIRE 480 304 480 240
WIRE 480 304 64 304
WIRE 656 304 656 240
WIRE 656 304 480 304
WIRE 64 336 64 304
FLAG 64 336 0
SYMBOL res 320 64 R90
WINDOW 0 0 56 VBottom 2
WINDOW 3 32 56 VTop 2
SYMATTR InstName R1
SYMATTR Value 1k
SYMBOL diode 640 176 R0
SYMATTR InstName D1
SYMATTR Value 1N914
SYMBOL diode 496 240 R180
WINDOW 0 24 64 Left 2
WINDOW 3 24 0 Left 2
SYMATTR InstName D2
SYMATTR Value 1N914
SYMBOL voltage 64 160 R0
WINDOW 123 0 0 Left 2
WINDOW 39 0 0 Left 2
SYMATTR InstName V1
SYMATTR Value SINE(0 1.5 50)
TEXT 30 360 Left 2 !.tran 50ms
