Version 4
SHEET 1 880 680
WIRE 192 0 16 0
WIRE 400 0 256 0
WIRE 512 0 400 0
WIRE 688 0 576 0
WIRE 16 128 16 0
WIRE 400 128 400 0
WIRE 688 128 688 0
WIRE 16 272 16 208
WIRE 400 272 400 192
WIRE 400 272 16 272
WIRE 688 272 688 192
WIRE 688 272 400 272
WIRE 16 304 16 272
FLAG 16 304 0
SYMBOL voltage 16 112 R0
WINDOW 123 0 0 Left 2
WINDOW 39 0 0 Left 2
SYMATTR InstName V1
SYMATTR Value SINE(0 5 1k)
SYMBOL cap 256 -16 R90
WINDOW 0 0 32 VBottom 2
WINDOW 3 32 32 VTop 2
SYMATTR InstName C1
SYMATTR Value 10µ
SYMBOL diode 416 192 R180
WINDOW 0 24 64 Left 2
WINDOW 3 24 0 Left 2
SYMATTR InstName D1
SYMATTR Value 1N914
SYMBOL diode 512 16 R270
WINDOW 0 32 32 VTop 2
WINDOW 3 0 32 VBottom 2
SYMATTR InstName D2
SYMATTR Value 1N914
SYMBOL cap 672 128 R0
SYMATTR InstName C2
SYMATTR Value 10µ
TEXT -18 328 Left 2 !.tran 50ms
