Version 4
SHEET 1 880 680
WIRE 352 -64 128 -64
WIRE 736 -64 352 -64
WIRE 128 -32 128 -64
WIRE 352 -32 352 -64
WIRE 736 48 736 -64
WIRE 352 80 352 48
WIRE 432 80 352 80
WIRE 576 80 496 80
WIRE 352 96 352 80
WIRE 16 144 -96 144
WIRE 128 144 128 48
WIRE 128 144 80 144
WIRE 288 144 128 144
WIRE 576 160 576 80
WIRE -96 192 -96 144
WIRE 128 208 128 144
WIRE -96 336 -96 272
WIRE 128 336 128 288
WIRE 128 336 -96 336
WIRE 352 336 352 192
WIRE 352 336 128 336
WIRE 576 336 576 240
WIRE 576 336 352 336
WIRE 736 336 736 128
WIRE 736 336 576 336
WIRE 352 368 352 336
FLAG 352 368 0
SYMBOL res 112 -48 R0
SYMATTR InstName R1
SYMATTR Value 51k
SYMBOL res 112 192 R0
SYMATTR InstName R2
SYMATTR Value 17k
SYMBOL res 336 -48 R0
SYMATTR InstName R3
SYMATTR Value 240
SYMBOL res 560 144 R0
SYMATTR InstName R4
SYMATTR Value 10k
SYMBOL npn 288 96 R0
SYMATTR InstName Q1
SYMATTR Value kt315g
SYMBOL polcap 432 64 M90
WINDOW 0 0 32 VBottom 2
WINDOW 3 32 32 VTop 2
SYMATTR InstName C1
SYMATTR Value 10µ
SYMATTR Description Capacitor
SYMATTR Type cap
SYMATTR SpiceLine V=16 Irms=0 Rser=11 Lser=0
SYMBOL polcap 80 128 R90
WINDOW 0 0 32 VBottom 2
WINDOW 3 32 32 VTop 2
SYMATTR InstName C2
SYMATTR Value 10µ
SYMATTR Description Capacitor
SYMATTR Type cap
SYMATTR SpiceLine V=16 Irms=0 Rser=11 Lser=0
SYMBOL voltage -96 176 R0
WINDOW 123 0 0 Left 2
WINDOW 39 0 0 Left 2
SYMATTR InstName V1
SYMATTR Value SINE(0 10m 1k)
SYMBOL voltage 736 32 R0
WINDOW 123 0 0 Left 2
WINDOW 39 0 0 Left 2
SYMATTR InstName V2
SYMATTR Value 5
TEXT -98 360 Left 2 !.tran 10m
